OPT_V9/Results/My_campus_w_initial_sub_3_active_27_03_13_05/network_debug.txt
Pandapower Network Debug Info
==================================================

BUS:
          name  vn_kv type  zone  in_service   geo
0        Bus 8    0.4    b  None        True  None
1        Bus 9    0.4    b  None        True  None
2       Bus 10    0.4    b  None        True  None
3       Bus 11    0.4    b  None        True  None
4       Bus 16    0.4    b  None        True  None
5       Bus 17    0.4    b  None        True  None
6       Bus 18    0.4    b  None        True  None
7       Bus 19    0.4    b  None        True  None
8       Bus 20    0.4    b  None        True  None
9       Bus 21   15.0    b  None        True  None
10      Bus 22   15.0    b  None        True  None
11      Bus 23   15.0    b  None        True  None
12      Bus 24   15.0    b  None        True  None
13      Bus 25   15.0    b  None        True  None
14      Bus 26   15.0    b  None        True  None
15    Sub MV 2   15.0    b  None        True  None
16    Sub LV 2    0.4    b  None        True  None
17    Sub MV 3   15.0    b  None        True  None
18    Sub LV 3    0.4    b  None        True  None
19    Sub MV 4   15.0    b  None        True  None
20    Sub LV 4    0.4    b  None        True  None
21    Sub MV 5   15.0    b  None        True  None
22    Sub LV 5    0.4    b  None        True  None
23  Slack HV 0   70.0    b  None        True  None
24  Slack MV 0   15.0    b  None        True  None
--------------------------------------------------

LOAD:
          name  bus          p_mw    q_mvar  const_z_percent  const_i_percent  sn_mva  scaling  in_service type
0    Load 8 T1    0  1.191342e-03 -0.159672              0.0              0.0     NaN      1.0        True  wye
1    Load 8 T2    0  9.093623e-02  0.002210              0.0              0.0     NaN      1.0        True  wye
2    Load 8 T3    0 -1.015383e-01 -0.435857              0.0              0.0     NaN      1.0        True  wye
3    Load 8 T4    0  8.823650e-02 -0.002225              0.0              0.0     NaN      1.0        True  wye
4    Load 8 T5    0 -9.011717e-02 -0.073309              0.0              0.0     NaN      1.0        True  wye
5    Load 8 T6    0  9.627418e-04 -0.162035              0.0              0.0     NaN      1.0        True  wye
6    Load 9 T1    1 -8.194361e-03  0.055372              0.0              0.0     NaN      1.0        True  wye
7    Load 9 T2    1  3.846697e-02 -0.021243              0.0              0.0     NaN      1.0        True  wye
8    Load 9 T3    1 -2.269049e-02  0.063711              0.0              0.0     NaN      1.0        True  wye
9    Load 9 T4    1  5.637702e-02 -0.015843              0.0              0.0     NaN      1.0        True  wye
10   Load 9 T5    1 -7.133392e-02 -0.286816              0.0              0.0     NaN      1.0        True  wye
11   Load 9 T6    1 -1.022295e-02 -0.016540              0.0              0.0     NaN      1.0        True  wye
12  Load 10 T1    2 -6.424372e-03  0.038575              0.0              0.0     NaN      1.0        True  wye
13  Load 10 T2    2 -3.071503e-03  0.026156              0.0              0.0     NaN      1.0        True  wye
14  Load 10 T3    2 -5.123096e-03  0.027520              0.0              0.0     NaN      1.0        True  wye
15  Load 10 T4    2  1.265054e-02 -0.059748              0.0              0.0     NaN      1.0        True  wye
16  Load 10 T5    2  9.127670e-02 -0.021229              0.0              0.0     NaN      1.0        True  wye
17  Load 10 T6    2 -1.018021e-01  0.075512              0.0              0.0     NaN      1.0        True  wye
18  Load 11 T1    3 -5.733531e-03 -0.057211              0.0              0.0     NaN      1.0        True  wye
19  Load 11 T2    3 -5.226837e-04 -0.041833              0.0              0.0     NaN      1.0        True  wye
20  Load 11 T3    3  2.434739e-02  0.061872              0.0              0.0     NaN      1.0        True  wye
21  Load 11 T4    3  1.130041e-01  0.005447              0.0              0.0     NaN      1.0        True  wye
22  Load 11 T5    3 -1.460300e-01  0.006469              0.0              0.0     NaN      1.0        True  wye
23  Load 11 T6    3  2.456686e-03 -0.081237              0.0              0.0     NaN      1.0        True  wye
24  Load 16 T1    4  1.723299e-02  0.000141              0.0              0.0     NaN      1.0        True  wye
25  Load 16 T2    4  4.991847e-02 -0.004908              0.0              0.0     NaN      1.0        True  wye
26  Load 16 T3    4 -5.152295e-02 -0.063463              0.0              0.0     NaN      1.0        True  wye
27  Load 16 T4    4 -9.393921e-03 -0.002670              0.0              0.0     NaN      1.0        True  wye
28  Load 16 T5    4 -7.671951e-03  0.002961              0.0              0.0     NaN      1.0        True  wye
29  Load 16 T6    4 -9.011009e-03  0.006337              0.0              0.0     NaN      1.0        True  wye
30  Load 17 T1    5  3.988842e-03  0.030283              0.0              0.0     NaN      1.0        True  wye
31  Load 17 T2    5 -1.238728e-03 -0.116358              0.0              0.0     NaN      1.0        True  wye
32  Load 17 T3    5  3.940327e-02 -0.011503              0.0              0.0     NaN      1.0        True  wye
33  Load 17 T4    5 -2.462942e-02 -0.164970              0.0              0.0     NaN      1.0        True  wye
34  Load 17 T5    5 -1.307196e-02 -0.032234              0.0              0.0     NaN      1.0        True  wye
35  Load 17 T6    5  1.971456e-03 -0.099225              0.0              0.0     NaN      1.0        True  wye
36  Load 18 T1    6 -7.379200e-03 -0.006143              0.0              0.0     NaN      1.0        True  wye
37  Load 18 T2    6  3.003754e-02 -0.050073              0.0              0.0     NaN      1.0        True  wye
38  Load 18 T3    6 -3.377588e-02 -0.133171              0.0              0.0     NaN      1.0        True  wye
39  Load 18 T4    6 -2.887176e-03  0.025566              0.0              0.0     NaN      1.0        True  wye
40  Load 18 T5    6  4.681991e-03 -0.196188              0.0              0.0     NaN      1.0        True  wye
41  Load 18 T6    6 -2.199753e-03  0.020010              0.0              0.0     NaN      1.0        True  wye
42  Load 19 T1    7 -5.982623e-03 -0.040253              0.0              0.0     NaN      1.0        True  wye
43  Load 19 T2    7  1.672978e-03  0.035850              0.0              0.0     NaN      1.0        True  wye
44  Load 19 T3    7 -4.179740e-03 -0.083365              0.0              0.0     NaN      1.0        True  wye
45  Load 19 T4    7 -2.301701e-03  0.048286              0.0              0.0     NaN      1.0        True  wye
46  Load 19 T5    7  9.171280e-02 -0.009283              0.0              0.0     NaN      1.0        True  wye
47  Load 19 T6    7 -8.596611e-02  0.085293              0.0              0.0     NaN      1.0        True  wye
48  Load 20 T1    8 -5.260129e-03  0.047686              0.0              0.0     NaN      1.0        True  wye
49  Load 20 T2    8 -2.806338e-04  0.011160              0.0              0.0     NaN      1.0        True  wye
50  Load 20 T3    8 -1.009703e-02  0.038287              0.0              0.0     NaN      1.0        True  wye
51  Load 20 T4    8  2.180517e-02  0.002093              0.0              0.0     NaN      1.0        True  wye
52  Load 20 T5    8 -2.033050e-02  0.056461              0.0              0.0     NaN      1.0        True  wye
53  Load 20 T6    8  1.865023e-03  0.035923              0.0              0.0     NaN      1.0        True  wye
54  Load 21 T1    9  1.260540e-03 -0.990928              0.0              0.0     NaN      1.0        True  wye
55  Load 21 T2    9  2.785340e-02  0.018257              0.0              0.0     NaN      1.0        True  wye
56  Load 21 T3    9 -1.109046e-03 -0.807423              0.0              0.0     NaN      1.0        True  wye
57  Load 21 T4    9  2.122138e-03  1.011691              0.0              0.0     NaN      1.0        True  wye
58  Load 21 T5    9 -1.028464e-03  0.716733              0.0              0.0     NaN      1.0        True  wye
59  Load 21 T6    9  9.417808e-03  0.160093              0.0              0.0     NaN      1.0        True  wye
60  Load 22 T1   10  1.614614e-03  1.008148              0.0              0.0     NaN      1.0        True  wye
61  Load 22 T2   10  3.643293e-02 -0.000003              0.0              0.0     NaN      1.0        True  wye
62  Load 22 T3   10 -1.494462e-02  0.522318              0.0              0.0     NaN      1.0        True  wye
63  Load 22 T4   10 -8.641741e-08  0.000826              0.0              0.0     NaN      1.0        True  wye
64  Load 22 T5   10  1.006913e+00  0.377818              0.0              0.0     NaN      1.0        True  wye
65  Load 22 T6   10  3.799732e-03  0.499440              0.0              0.0     NaN      1.0        True  wye
66  Load 23 T1   11  7.937986e-04  0.340223              0.0              0.0     NaN      1.0        True  wye
67  Load 23 T2   11  5.680036e-03  1.009966              0.0              0.0     NaN      1.0        True  wye
68  Load 23 T3   11  6.992790e-03  1.011132              0.0              0.0     NaN      1.0        True  wye
69  Load 23 T4   11  3.861651e-01  1.011802              0.0              0.0     NaN      1.0        True  wye
70  Load 23 T5   11 -1.184720e-01  1.011090              0.0              0.0     NaN      1.0        True  wye
71  Load 23 T6   11  2.162487e-01  0.019385              0.0              0.0     NaN      1.0        True  wye
72  Load 24 T1   12  1.186312e-02  1.005384              0.0              0.0     NaN      1.0        True  wye
73  Load 24 T2   12  2.462602e-03  1.006687              0.0              0.0     NaN      1.0        True  wye
74  Load 24 T3   12  2.613430e-03  1.006711              0.0              0.0     NaN      1.0        True  wye
75  Load 24 T4   12  2.267720e-01  1.004832              0.0              0.0     NaN      1.0        True  wye
76  Load 24 T5   12 -2.083086e-01  1.005095              0.0              0.0     NaN      1.0        True  wye
77  Load 24 T6   12  1.007954e+00  1.006527              0.0              0.0     NaN      1.0        True  wye
78  Load 25 T1   13  1.884329e-02  1.010586              0.0              0.0     NaN      1.0        True  wye
79  Load 25 T2   13 -1.076943e-02  1.011062              0.0              0.0     NaN      1.0        True  wye
80  Load 25 T3   13  4.405336e-01  1.008327              0.0              0.0     NaN      1.0        True  wye
81  Load 25 T4   13 -1.518511e-01  1.009887              0.0              0.0     NaN      1.0        True  wye
82  Load 25 T5   13  7.440472e-01  1.011609              0.0              0.0     NaN      1.0        True  wye
83  Load 25 T6   13  1.022679e-02  1.009945              0.0              0.0     NaN      1.0        True  wye
84  Load 26 T1   14  6.183235e-03  1.011070              0.0              0.0     NaN      1.0        True  wye
85  Load 26 T2   14  7.638509e-03  1.012019              0.0              0.0     NaN      1.0        True  wye
86  Load 26 T3   14  7.476637e-03  1.012168              0.0              0.0     NaN      1.0        True  wye
87  Load 26 T4   14  6.683534e-03  1.013300              0.0              0.0     NaN      1.0        True  wye
88  Load 26 T5   14  1.551176e-02  1.012190              0.0              0.0     NaN      1.0        True  wye
89  Load 26 T6   14  1.011966e+00  1.014022              0.0              0.0     NaN      1.0        True  wye
--------------------------------------------------

EXT_GRID:
        name  bus  vm_pu  va_degree  slack_weight  in_service
0  ExtGrid 0   23    1.0        0.0           1.0        True
--------------------------------------------------

LINE:
       name std_type  from_bus  to_bus  length_km  r_ohm_per_km  x_ohm_per_km  c_nf_per_km  g_us_per_km  max_i_ka   df  parallel  type  in_service   geo
0    Line 0     None        24      15   0.400000        0.1732         0.381          0.0          0.0      0.53  1.0         1  None        True  None
1    Line 1     None        24      17   1.029563        0.1732         0.381          0.0          0.0      0.53  1.0         1  None        True  None
2    Line 2     None        24      19   1.204159        0.1732         0.381          0.0          0.0      0.53  1.0         1  None        True  None
3    Line 3     None        24      21   1.486607        0.2747         0.402          0.0          0.0      0.34  1.0         1  None        True  None
4    Line 8     None        15       9   0.316228        0.1732         0.381          0.0          0.0      0.53  1.0         1  None        True  None
5    Line 9     None        15      10   0.447214        0.2747         0.402          0.0          0.0      0.34  1.0         1  None        True  None
6   Line 10     None        15      11   0.565685        0.1732         0.381          0.0          0.0      0.53  1.0         1  None        True  None
7   Line 14     None        19      12   0.316228        0.1732         0.381          0.0          0.0      0.53  1.0         1  None        True  None
8   Line 15     None        19      13   0.500000        0.2180         0.394          0.0          0.0      0.46  1.0         1  None        True  None
9   Line 16     None        19      14   0.412311        0.1732         0.381          0.0          0.0      0.53  1.0         1  None        True  None
10  Line 20     None        16       0   0.136015        0.5502         0.429          0.0          0.0      0.23  1.0         1  None        True  None
11  Line 21     None        16       1   0.250799        0.5502         0.429          0.0          0.0      0.23  1.0         1  None        True  None
12  Line 22     None        16       2   0.510392        0.1732         0.381          0.0          0.0      0.53  1.0         1  None        True  None
13  Line 23     None        16       3   0.240000        0.2180         0.394          0.0          0.0      0.46  1.0         1  None        True  None
14  Line 28     None        20       4   0.685930        0.1732         0.381          0.0          0.0      0.53  1.0         1  None        True  None
15  Line 29     None        20       5   0.250799        0.5502         0.429          0.0          0.0      0.23  1.0         1  None        True  None
16  Line 30     None        20       6   0.500400        0.2747         0.402          0.0          0.0      0.34  1.0         1  None        True  None
17  Line 31     None        20       7   0.250200        0.2180         0.394          0.0          0.0      0.46  1.0         1  None        True  None
18  Line 32     None        20       8   0.332415        0.5502         0.429          0.0          0.0      0.23  1.0         1  None        True  None
--------------------------------------------------

TRAFO:
                  name std_type  hv_bus  lv_bus  sn_mva  vn_hv_kv  vn_lv_kv  vk_percent  vkr_percent  pfe_kw  i0_percent  shift_degree tap_side  tap_neutral  tap_min  tap_max  tap_step_percent  tap_step_degree  tap_pos tap_changer_type  id_characteristic_table  tap_dependency_table  parallel   df  in_service
0  MV/LV Transformer 2     None      15      16    10.0      15.0       0.4        0.01         0.01    0.01        0.01           0.0     None          NaN      NaN      NaN               NaN              NaN      NaN              NaN                     <NA>                 False         1  1.0        True
1  MV/LV Transformer 3     None      17      18    10.0      15.0       0.4        0.01         0.01    0.01        0.01           0.0     None          NaN      NaN      NaN               NaN              NaN      NaN              NaN                     <NA>                 False         1  1.0        True
2  MV/LV Transformer 4     None      19      20    10.0      15.0       0.4        0.01         0.01    0.01        0.01           0.0     None          NaN      NaN      NaN               NaN              NaN      NaN              NaN                     <NA>                 False         1  1.0        True
3  MV/LV Transformer 5     None      21      22    10.0      15.0       0.4        0.01         0.01    0.01        0.01           0.0     None          NaN      NaN      NaN               NaN              NaN      NaN              NaN                     <NA>                 False         1  1.0        True
4  Slack Transformer 0     None      23      24    40.0      70.0      15.0        0.01         0.01    0.01        0.01           0.0     None          NaN      NaN      NaN               NaN              NaN      NaN              NaN                     <NA>                 False         1  1.0        True
--------------------------------------------------

RES_BUS:
       vm_pu  va_degree      p_mw    q_mvar
0   1.052679  -4.145226  0.000963 -0.162035
1   1.019130  -0.411440 -0.010223 -0.016540
2   0.946664  10.073565 -0.101802  0.075512
3   1.044431  -1.533546  0.002457 -0.081237
4   0.987895   1.072400 -0.009011  0.006337
5   1.050249  -4.849135  0.001971 -0.099225
6   0.967531   1.128148 -0.002200  0.020010
7   0.964023   4.858931 -0.085966  0.085293
8   0.955183   2.320199  0.001865  0.035923
9   0.999503   0.006224  0.009418  0.160093
10  0.999190   0.019747  0.003800  0.499440
11  0.999478  -0.007117  0.216249  0.019385
12  0.991001  -0.080731  1.007954  1.006527
13  0.990895  -0.035548  0.010227  1.009945
14  0.990754  -0.085981  1.011966  1.014022
15  0.999591   0.004278  0.000000  0.000000
16  0.999592   0.004192  0.000000  0.000000
17  0.999993   0.000569  0.000000  0.000000
18  0.999993   0.000569  0.000000  0.000000
19  0.991793  -0.063550  0.000000  0.000000
20  0.991794  -0.063511  0.000000  0.000000
21  0.999992   0.000627  0.000000  0.000000
22  0.999992   0.000627  0.000000  0.000000
23  1.000000   0.000000 -2.110794 -3.665208
24  0.999995   0.000525  0.000000  0.000000
--------------------------------------------------

RES_LINE:
    p_from_mw  q_from_mvar   p_to_mw  q_to_mvar         pl_mw       ql_mvar  i_from_ka   i_to_ka      i_ka  vm_from_pu  va_from_degree  vm_to_pu  va_to_degree  loading_percent
0    0.144408     0.530332 -0.144315  -0.530128  9.302283e-05  2.046287e-04   0.021156  0.021156  0.021156    0.999995        0.000525  0.999591      0.004278         3.991667
1    0.000010     0.001000 -0.000010  -0.001000  7.925236e-10  1.743369e-09   0.000038  0.000038  0.000038    0.999995        0.000525  0.999993      0.000569         0.007262
2    1.966311     3.128876 -1.953652  -3.101030  1.265858e-02  2.784596e-02   0.142238  0.142238  0.142238    0.999995        0.000525  0.991793     -0.063550        26.837381
3    0.000010     0.001000 -0.000010  -0.001000  1.814953e-09  2.656029e-09   0.000038  0.000038  0.000038    0.999995        0.000525  0.999992      0.000627         0.011321
4    0.009424     0.160107 -0.009418  -0.160093  6.266739e-06  1.378538e-05   0.006176  0.006176  0.006176    0.999591        0.004278  0.999503      0.006224         1.165227
5    0.003936     0.499639 -0.003800  -0.499440  1.364227e-04  1.996430e-04   0.019240  0.019240  0.019240    0.999591        0.004278  0.999190      0.019747         5.658704
6    0.216269     0.019430 -0.216249  -0.019385  2.054833e-05  4.520157e-05   0.008361  0.008361  0.008361    0.999591        0.004278  0.999478     -0.007117         1.577576
7    1.008457     1.007633 -1.007954  -1.006527  5.029369e-04  1.106345e-03   0.055325  0.055325  0.055325    0.991793       -0.063550  0.991001     -0.080731        10.438697
8    0.010730     1.010855 -0.010227  -1.009945  5.033021e-04  9.096377e-04   0.039232  0.039232  0.039232    0.991793       -0.063550  0.990895     -0.035548         8.528696
9    1.012630     1.015482 -1.011966  -1.014022  6.635944e-04  1.459754e-03   0.055655  0.055655  0.055655    0.991793       -0.063550  0.990754     -0.085981        10.500952
10   0.012045    -0.153394 -0.000963   0.162035  1.108229e-02  8.641042e-03   0.222178  0.222178  0.222178    0.999592        0.004192  1.052679     -4.145226        96.599084
11  -0.009909    -0.016295  0.010223   0.016540  3.139320e-04  2.447780e-04   0.027538  0.027538  0.027538    0.999592        0.004192  1.019130     -0.411440        11.973094
12  -0.091897     0.097300  0.101802  -0.075512  9.904670e-03  2.178799e-02   0.193256  0.193256  0.193256    0.999592        0.004192  0.946664     10.073565        36.463440
13   0.004437    -0.077658 -0.002457   0.081237  1.980107e-03  3.578726e-03   0.112318  0.112318  0.112318    0.999592        0.004192  1.044431     -1.533546        24.416984
14  -0.008919     0.006540  0.009011  -0.006337  9.232743e-05  2.030990e-04   0.016095  0.016095  0.016095    0.991794       -0.063511  0.987895      1.072400         3.036792
15   0.009673    -0.093220 -0.001971   0.099225  7.701174e-03  6.004732e-03   0.136394  0.136394  0.136394    0.991794       -0.063511  1.050249     -4.849135        59.301688
16  -0.001828     0.020554  0.002200  -0.020010  3.719001e-04  5.442440e-04   0.030031  0.030031  0.030031    0.991794       -0.063511  0.967531      1.128148         8.832541
17  -0.080587     0.095015  0.085966  -0.085293  5.379367e-03  9.722343e-03   0.181315  0.181315  0.181315    0.991794       -0.063511  0.964023      4.858931        39.416251
18   0.003486     0.037187 -0.001865  -0.035923  1.621187e-03  1.264066e-03   0.054357  0.054357  0.054357    0.991794       -0.063511  0.955183      2.320199        23.633456
--------------------------------------------------

RES_TRAFO:
    p_hv_mw  q_hv_mvar       p_lv_mw     q_lv_mvar     pl_mw   ql_mvar   i_hv_ka       i_lv_ka  vm_hv_pu  va_hv_degree  vm_lv_pu  va_lv_degree  loading_percent
0 -0.085314  -0.149048  8.532466e-02  1.500472e-01  0.000010  0.000999  0.006613  2.492439e-01  0.999591      0.004278  0.999592      0.004192         1.726812
1  0.000010   0.001000  1.455181e-11  1.446178e-16  0.000010  0.001000  0.000038  2.100388e-11  0.999993      0.000569  0.999993      0.000569         0.010000
2 -0.078164   0.067059  7.817444e-02 -6.607577e-02  0.000010  0.000984  0.003997  1.489642e-01  0.991793     -0.063550  0.991794     -0.063511         1.038408
3  0.000010   0.001000 -1.455180e-11  5.067660e-16  0.000010  0.001000  0.000038  2.100388e-11  0.999992      0.000627  0.999992      0.000627         0.010000
4  2.110794   3.665208 -2.110739e+00 -3.661208e+00  0.000055  0.004000  0.034885  1.626623e-01  1.000000      0.000000  0.999995      0.000525        10.573906
--------------------------------------------------

RES_EXT_GRID:
       p_mw    q_mvar
0  2.110794  3.665208
--------------------------------------------------

RES_LOAD:
        p_mw    q_mvar
0   0.000000 -0.000000
1   0.000000  0.000000
2  -0.000000 -0.000000
3   0.000000 -0.000000
4  -0.000000 -0.000000
5   0.000963 -0.162035
6  -0.000000  0.000000
7   0.000000 -0.000000
8  -0.000000  0.000000
9   0.000000 -0.000000
10 -0.000000 -0.000000
11 -0.010223 -0.016540
12 -0.000000  0.000000
13 -0.000000  0.000000
14 -0.000000  0.000000
15  0.000000 -0.000000
16  0.000000 -0.000000
17 -0.101802  0.075512
18 -0.000000 -0.000000
19 -0.000000 -0.000000
20  0.000000  0.000000
21  0.000000  0.000000
22 -0.000000  0.000000
23  0.002457 -0.081237
24  0.000000  0.000000
25  0.000000 -0.000000
26 -0.000000 -0.000000
27 -0.000000 -0.000000
28 -0.000000  0.000000
29 -0.009011  0.006337
30  0.000000  0.000000
31 -0.000000 -0.000000
32  0.000000 -0.000000
33 -0.000000 -0.000000
34 -0.000000 -0.000000
35  0.001971 -0.099225
36 -0.000000 -0.000000
37  0.000000 -0.000000
38 -0.000000 -0.000000
39 -0.000000  0.000000
40  0.000000 -0.000000
41 -0.002200  0.020010
42 -0.000000 -0.000000
43  0.000000  0.000000
44 -0.000000 -0.000000
45 -0.000000  0.000000
46  0.000000 -0.000000
47 -0.085966  0.085293
48 -0.000000  0.000000
49 -0.000000  0.000000
50 -0.000000  0.000000
51  0.000000  0.000000
52 -0.000000  0.000000
53  0.001865  0.035923
54  0.000000 -0.000000
55  0.000000  0.000000
56 -0.000000 -0.000000
57  0.000000  0.000000
58 -0.000000  0.000000
59  0.009418  0.160093
60  0.000000  0.000000
61  0.000000 -0.000000
62 -0.000000  0.000000
63 -0.000000  0.000000
64  0.000000  0.000000
65  0.003800  0.499440
66  0.000000  0.000000
67  0.000000  0.000000
68  0.000000  0.000000
69  0.000000  0.000000
70 -0.000000  0.000000
71  0.216249  0.019385
72  0.000000  0.000000
73  0.000000  0.000000
74  0.000000  0.000000
75  0.000000  0.000000
76 -0.000000  0.000000
77  1.007954  1.006527
78  0.000000  0.000000
79 -0.000000  0.000000
80  0.000000  0.000000
81 -0.000000  0.000000
82  0.000000  0.000000
83  0.010227  1.009945
84  0.000000  0.000000
85  0.000000  0.000000
86  0.000000  0.000000
87  0.000000  0.000000
88  0.000000  0.000000
89  1.011966  1.014022
--------------------------------------------------

BUS_GEODATA:
        x      y
0    11.0   48.0
1    25.0   38.0
2    51.0   42.0
3     0.0   64.0
4   129.0  138.0
5   105.0   88.0
6   130.0   92.0
7    81.0  115.0
8   103.0  114.0
9    10.0   70.0
10   20.0   80.0
11   40.0   80.0
12   90.0  120.0
13  120.0  120.0
14  120.0  100.0
15    0.0   40.0
16    0.5   39.5
17   50.0   90.0
18   50.5   89.5
19   80.0   90.0
20   80.5   89.5
21  100.0  110.0
22  100.5  109.5
23    0.0    0.0
24    0.5   -0.5
--------------------------------------------------
